# generated using pymatgen
data_NbAlO4
_symmetry_space_group_name_H-M   'P 1'
_cell_length_a   3.80056316
_cell_length_b   6.39746380
_cell_length_c   12.98155836
_cell_angle_alpha   102.40828772
_cell_angle_beta   98.41738131
_cell_angle_gamma   72.72029666
_symmetry_Int_Tables_number   1
_chemical_formula_structural   NbAlO4
_chemical_formula_sum   'Nb4 Al4 O16'
_cell_volume   293.19167797
_cell_formula_units_Z   4
loop_
 _symmetry_equiv_pos_site_id
 _symmetry_equiv_pos_as_xyz
  1  'x, y, z'
loop_
 _atom_site_type_symbol
 _atom_site_label
 _atom_site_symmetry_multiplicity
 _atom_site_fract_x
 _atom_site_fract_y
 _atom_site_fract_z
 _atom_site_occupancy
  Nb  Nb1  1  0.805825  0.503616  0.115266  1
  Nb  Nb2  1  0.104465  0.406134  0.615066  1
  Nb  Nb3  1  0.194175  0.996384  0.384734  1
  Nb  Nb4  1  0.895535  0.093866  0.884934  1
  Al  Al5  1  0.097858  0.898846  0.094562  1
  Al  Al6  1  0.802647  0.991262  0.596558  1
  Al  Al7  1  0.902142  0.601154  0.405439  1
  Al  Al8  1  0.197353  0.508738  0.903442  1
  O  O9  1  0.134316  0.973639  0.242270  1
  O  O10  1  0.740449  0.946492  0.427390  1
  O  O11  1  0.634103  0.831053  0.099257  1
  O  O12  1  0.365897  0.668947  0.400743  1
  O  O13  1  0.259551  0.553508  0.072610  1
  O  O14  1  0.060665  0.816971  0.938302  1
  O  O15  1  0.939334  0.683029  0.561698  1
  O  O16  1  0.865684  0.526361  0.257730  1
  O  O17  1  0.133631  0.492027  0.759289  1
  O  O18  1  0.058401  0.316657  0.433458  1
  O  O19  1  0.941599  0.183343  0.066542  1
  O  O20  1  0.733672  0.453901  0.921246  1
  O  O21  1  0.646749  0.309680  0.603178  1
  O  O22  1  0.353251  0.190320  0.896822  1
  O  O23  1  0.266328  0.046099  0.578754  1
  O  O24  1  0.866369  0.007973  0.740711  1
