# generated using pymatgen
data_NaLi3Fe4(SiO3)8
_symmetry_space_group_name_H-M   'P 1'
_cell_length_a   6.60034305
_cell_length_b   25.56865931
_cell_length_c   5.36610090
_cell_angle_alpha   92.94395495
_cell_angle_beta   104.65754855
_cell_angle_gamma   86.84573278
_symmetry_Int_Tables_number   1
_chemical_formula_structural   NaLi3Fe4(SiO3)8
_chemical_formula_sum   'Na2 Li6 Fe8 Si16 O48'
_cell_volume   874.13694763
_cell_formula_units_Z   2
loop_
 _symmetry_equiv_pos_site_id
 _symmetry_equiv_pos_as_xyz
  1  'x, y, z'
loop_
 _atom_site_type_symbol
 _atom_site_label
 _atom_site_symmetry_multiplicity
 _atom_site_fract_x
 _atom_site_fract_y
 _atom_site_fract_z
 _atom_site_occupancy
  Na  Na1  1  0.290597  0.428176  0.824000  1
  Na  Na2  1  0.291220  0.176955  0.072006  1
  Li  Li3  1  0.250301  0.935975  0.309295  1
  Li  Li4  1  0.749581  0.812249  0.936052  1
  Li  Li5  1  0.747878  0.563211  0.189437  1
  Li  Li6  1  0.250661  0.686956  0.561705  1
  Li  Li7  1  0.747922  0.313484  0.438042  1
  Li  Li8  1  0.749272  0.062459  0.684101  1
  Fe  Fe9  1  0.897051  0.775451  0.473692  1
  Fe  Fe10  1  0.101872  0.973218  0.770906  1
  Fe  Fe11  1  0.102225  0.724737  0.024875  1
  Fe  Fe12  1  0.898243  0.526744  0.729045  1
  Fe  Fe13  1  0.102043  0.475948  0.279772  1
  Fe  Fe14  1  0.898011  0.275771  0.974752  1
  Fe  Fe15  1  0.896676  0.024568  0.219205  1
  Fe  Fe16  1  0.101423  0.224407  0.525683  1
  Si  Si17  1  0.792351  0.903182  0.326929  1
  Si  Si18  1  0.613961  0.947989  0.782287  1
  Si  Si19  1  0.613459  0.699036  0.034639  1
  Si  Si20  1  0.384956  0.801774  0.465019  1
  Si  Si21  1  0.791308  0.654383  0.579050  1
  Si  Si22  1  0.206427  0.846047  0.919931  1
  Si  Si23  1  0.206029  0.597541  0.170963  1
  Si  Si24  1  0.617608  0.449642  0.302355  1
  Si  Si25  1  0.383580  0.553463  0.714373  1
  Si  Si26  1  0.794105  0.404805  0.844065  1
  Si  Si27  1  0.794895  0.153605  0.091881  1
  Si  Si28  1  0.203041  0.346108  0.406037  1
  Si  Si29  1  0.617876  0.198577  0.550126  1
  Si  Si30  1  0.383073  0.301672  0.953047  1
  Si  Si31  1  0.384195  0.050179  0.204040  1
  Si  Si32  1  0.202975  0.094676  0.655237  1
  O  O33  1  0.968949  0.948978  0.396907  1
  O  O34  1  0.797054  0.992207  0.853522  1
  O  O35  1  0.645498  0.911596  0.033564  1
  O  O36  1  0.886772  0.843572  0.323542  1
  O  O37  1  0.646258  0.911378  0.533470  1
  O  O38  1  0.374760  0.971499  0.694438  1
  O  O39  1  0.797716  0.742882  0.107492  1
  O  O40  1  0.352494  0.838781  0.214804  1
  O  O41  1  0.968299  0.700169  0.649603  1
  O  O42  1  0.624484  0.778575  0.552372  1
  O  O43  1  0.353173  0.838599  0.714136  1
  O  O44  1  0.111148  0.905826  0.922620  1
  O  O45  1  0.644239  0.662674  0.285722  1
  O  O46  1  0.884326  0.594663  0.574866  1
  O  O47  1  0.201226  0.757904  0.392031  1
  O  O48  1  0.644989  0.662526  0.785273  1
  O  O49  1  0.374559  0.722768  0.947318  1
  O  O50  1  0.030201  0.800385  0.848751  1
  O  O51  1  0.801951  0.492946  0.366055  1
  O  O52  1  0.109417  0.657125  0.173000  1
  O  O53  1  0.353008  0.590802  0.465674  1
  O  O54  1  0.962774  0.451951  0.908337  1
  O  O55  1  0.622238  0.529557  0.803325  1
  O  O56  1  0.352107  0.590046  0.964585  1
  O  O57  1  0.646803  0.411961  0.052146  1
  O  O58  1  0.381716  0.474953  0.223921  1
  O  O59  1  0.030318  0.551635  0.101831  1
  O  O60  1  0.643332  0.412625  0.551039  1
  O  O61  1  0.887813  0.345015  0.833758  1
  O  O62  1  0.196737  0.510556  0.640571  1
  O  O63  1  0.963425  0.200700  0.155513  1
  O  O64  1  0.621171  0.277891  0.044764  1
  O  O65  1  0.350669  0.339104  0.200609  1
  O  O66  1  0.801134  0.242232  0.612093  1
  O  O67  1  0.103125  0.405155  0.401066  1
  O  O68  1  0.353143  0.338377  0.700803  1
  O  O69  1  0.890066  0.093942  0.082013  1
  O  O70  1  0.647928  0.160786  0.300337  1
  O  O71  1  0.381627  0.223579  0.471240  1
  O  O72  1  0.029369  0.299861  0.346299  1
  O  O73  1  0.644227  0.161512  0.798923  1
  O  O74  1  0.195397  0.259141  0.884574  1
  O  O75  1  0.623209  0.027135  0.293610  1
  O  O76  1  0.351878  0.087669  0.451142  1
  O  O77  1  0.103614  0.153812  0.649925  1
  O  O78  1  0.351768  0.086739  0.950730  1
  O  O79  1  0.199893  0.006645  0.135945  1
  O  O80  1  0.029189  0.048577  0.593191  1
